** Mills ---------------------------------------------------------------
*Material, name=Material-HastelloyX
*Conductivity
 10.3e-3,    25.0
 32.3e-3,  1200.0
197.07e-3,10000.0
*Density
 8240e-9
*Specific Heat
 437.78,   25.0
 684.86, 1158.0
2613.08,10000.0
** ---------------------------------------------------------------------
